.MODEL MODN NMOS LEVEL=7 
* ----------------------------------------------------------------------
************************* SIMULATION PARAMETERS ************************
* ----------------------------------------------------------------------
* format    : PSPICE
* model     : MOS BSIM3v3
* process   : CS[ADFI]
* revision  : N/C; 
* extracted : CSA C61417; 1998-10; ese(487)
* doc#      : 9933016 REV_N/C
* ----------------------------------------------------------------------
*                        TYPICAL MEAN CONDITION
* ----------------------------------------------------------------------
*
*        *** Flags ***
+MOBMOD =1.000e+00 CAPMOD =2.000e+00 
+NLEV   =0         
*        *** Threshold voltage related model parameters ***
+K1     =6.044e-01 
+K2     =2.945e-03 K3     =-1.72e+00 K3B    =6.325e-01 
+NCH    =2.310e+17 VTH0   =4.655e-01 
+VOFF   =-5.72e-02 DVT0   =2.227e+01 DVT1   =1.051e+00 
+DVT2   =3.393e-03 KETA   =-6.21e-04 
+PSCBE1 =2.756e+08 PSCBE2 =9.645e-06 
+DVT0W  =0.000e+00 DVT1W  =0.000e+00 DVT2W  =0.000e+00 
*        *** Mobility related model parameters ***
+UA     =1.000e-12 UB     =1.723e-18 UC     =5.756e-11 
+U0     =4.035e+02 
*        *** Subthreshold related parameters ***
+DSUB   =5.000e-01 ETA0   =3.085e-02 ETAB   =-3.95e-02 
+NFACTOR=1.119e-01 
*        *** Saturation related parameters ***
+EM     =4.100e+07 PCLM   =6.831e-01 
+PDIBLC1=1.076e-01 PDIBLC2=1.453e-03 DROUT  =5.000e-01 
+A0     =2.208e+00 A1     =0.000e+00 A2     =1.000e+00 
+PVAG   =0.000e+00 VSAT   =1.178e+05 AGS    =2.490e-01 
+B0     =-1.76e-08 B1     =0.000e+00 DELTA  =1.000e-02 
+PDIBLCB=2.583e-01 
*        *** Geometry modulation related parameters ***
+W0     =1.184e-07 DLC    =8.285e-09 
+DWC    =2.676e-08 DWB    =0.000e+00 DWG    =0.000e+00 
+LL     =0.000e+00 LW     =0.000e+00 LWL    =0.000e+00 
+LLN    =1.000e+00 LWN    =1.000e+00 WL     =0.000e+00 
+WW     =0.000e+00 WWL    =0.000e+00 WLN    =1.000e+00 
+WWN    =1.000e+00 
*        *** Temperature effect parameters ***
+AT     =3.300e+04 UTE    =-1.80e+00 
+KT1    =-3.30e-01 KT2    =2.200e-02 KT1L   =0.000e+00 
+UA1    =0.000e+00 UB1    =0.000e+00 UC1    =0.000e+00 
+PRT    =0.000e+00 
*        *** Overlap capacitance related and dynamic model parameters   ***
+CGDO   =2.100e-10 CGSO   =2.100e-10 CGBO   =1.100e-10 
+CGDL   =0.000e+00 CGSL   =0.000e+00 CKAPPA =6.000e-01 
+CF     =0.000e+00 ELM    =5.000e+00 
+XPART  =1.000e+00 CLC    =1.000e-15 CLE    =6.000e-01 
*        *** Parasitic resistance and capacitance related model parameters ***
+RDSW   =6.043e+02 
+CDSC   =0.000e+00 CDSCB  =0.000e+00 CDSCD  =8.448e-05 
+PRWB   =0.000e+00 PRWG   =0.000e+00 CIT    =1.000e-03 
*        *** Process and parameters extraction related model parameters ***
+TOX    =7.700e-09 NGATE  =0.000e+00 
+NLX    =1.918e-07 
*        *** Substrate current related model parameters ***
+ALPHA0 =0.000e+00 BETA0  =3.000e+01 
*        *** Noise effect related model parameters ***
+AF     =1.400e+00 KF     =2.810e-27 EF     =1.000e+00 
+NOIA   =1.000e+20 NOIB   =5.000e+04 NOIC   =-1.40e-12 
*        *** Common extrinsic model parameters ***
+LINT   =-1.67e-08 WINT   =2.676e-08 XJ     =3.000e-07 
+RSH    =8.200e+01 JS     =2.000e-05 
+CJ     =9.300e-04 CJSW   =2.800e-10 
+MJ     =3.100e-01 MJSW   =1.900e-01 
+PB     =6.900e-01 TT     =0.000e+00 
+PBSW   =9.400e-01 
* ----------------------------------------------------------------------
.SUBCKT ND A C PARAMS: AREA=1e-12 PERI=4e-6
* ----------------------------------------------------------------------
************************* SIMULATION PARAMETERS ************************
* ----------------------------------------------------------------------
* format    : PSPICE
* model     : DIODE
* process   : CS[ADFI]
* revision  : N/C; 
* extracted : CSA C61417; 1998-10; ese(487)
* doc#      : 9933016 REV_N/C
* ----------------------------------------------------------------------
*                        TYPICAL MEAN CONDITION
* ----------------------------------------------------------------------
* TERMINALS: A=anode=P-region C=cathode=N-region
* VARIABLES: M (mulitiplier), AREA [m^2], PERI [m].
* NOTE: The role of a protection DIODE is to conduct ESD current to VDD 
* (or from VSS). This forward bias is NOT modelled, only leakage current 
* and capacitance during normal operation. Any inductive load etc that 
* will give forward bias, must be limited by other components to within 
* Operating Conditions, otherwise parasitic bipolar action can occur.
*
D1 A C NDINSUBA {AREA}
D2 A C NDINSUBS {PERI}
.ENDS ND
*
.MODEL NDINSUBA D 
+IS     =2.000e-05 N      =1.000e+00 
+CJO    =9.300e-04 M      =3.100e-01 VJ     =6.900e-01 
+TT     =0.000e+00 FC     =0.500e+00 
+EG     =1.110e+00 XTI    =3.000e+00 
+AF     =1.000e+00 KF     =0.000e+00
.MODEL NDINSUBS D
+IS     =0.000e+00 N      =1.000e+00 
+CJO    =2.800e-10 M      =1.900e-01 VJ     =6.900e-01 
+TT     =0.000e+00 FC     =0.500e+00  
+EG     =1.110e+00 XTI    =3.000e+00 
+AF     =1.000e+00 KF     =0.000e+00
* ----------------------------------------------------------------------
.MODEL MODNM NMOS LEVEL=7 
* ----------------------------------------------------------------------
************************* SIMULATION PARAMETERS ************************
* ----------------------------------------------------------------------
* format    : PSPICE
* model     : MOS BSIM3v3
* process   : CS[ADFI]
* revision  : N/C; 
* extracted : CSA C61417; 1998-10; ese(487)
* doc#      : 9933016 REV_N/C
* ----------------------------------------------------------------------
*                        TYPICAL MEAN CONDITION
* ----------------------------------------------------------------------
*
*        *** Flags ***
+MOBMOD =1.000e+00 CAPMOD =2.000e+00 
+NLEV   =0         
*        *** Threshold voltage related model parameters ***
+K1     =9.659e-01 
+K2     =4.460e-02 K3     =-2.44e+00 K3B    =4.077e-01 
+NCH    =2.108e+17 VTH0   =6.593e-01 
+VOFF   =-6.38e-02 DVT0   =5.000e+01 DVT1   =1.683e+00 
+DVT2   =4.126e-02 KETA   =5.769e-03 
+PSCBE1 =4.000e+08 PSCBE2 =1.000e-06 
+DVT0W  =0.000e+00 DVT1W  =0.000e+00 DVT2W  =0.000e+00 
*        *** Mobility related model parameters ***
+UA     =1.000e-12 UB     =6.408e-19 UC     =-7.99e-11 
+U0     =4.003e+02 
*        *** Subthreshold related parameters ***
+DSUB   =5.000e-01 ETA0   =1.616e-03 ETAB   =-1.37e-02 
+NFACTOR=1.180e-01 
*        *** Saturation related parameters ***
+EM     =4.100e+07 PCLM   =5.166e-01 
+PDIBLC1=1.441e-02 PDIBLC2=1.305e-03 DROUT  =5.000e-01 
+A0     =1.273e+00 A1     =0.000e+00 A2     =1.000e+00 
+PVAG   =0.000e+00 VSAT   =9.822e+04 AGS    =9.448e-02 
+B0     =-3.63e-08 B1     =0.000e+00 DELTA  =1.000e-02 
+PDIBLCB=3.872e-01 
*        *** Geometry modulation related parameters ***
+W0     =6.289e-08 DLC    =8.917e-08 
+DWC    =4.938e-08 DWB    =0.000e+00 DWG    =0.000e+00 
+LL     =0.000e+00 LW     =0.000e+00 LWL    =0.000e+00 
+LLN    =1.000e+00 LWN    =1.000e+00 WL     =0.000e+00 
+WW     =0.000e+00 WWL    =0.000e+00 WLN    =1.000e+00 
+WWN    =1.000e+00 
*        *** Temperature effect parameters ***
+AT     =3.300e+04 UTE    =-1.75e+00 
+KT1    =-4.50e-01 KT2    =2.200e-02 KT1L   =0.000e+00 
+UA1    =0.000e+00 UB1    =0.000e+00 UC1    =0.000e+00 
+PRT    =0.000e+00 
*        *** Overlap capacitance related and dynamic model parameters   ***
+CGDO   =1.900e-10 CGSO   =1.900e-10 CGBO   =1.100e-10 
+CGDL   =0.000e+00 CGSL   =0.000e+00 CKAPPA =6.000e-01 
+CF     =0.000e+00 ELM    =5.000e+00 
+XPART  =1.000e+00 CLC    =1.000e-15 CLE    =6.000e-01 
*        *** Parasitic resistance and capacitance related model parameters ***
+RDSW   =1.570e+03 
+CDSC   =1.000e-02 CDSCB  =0.000e+00 CDSCD  =8.448e-05 
+PRWB   =0.000e+00 PRWG   =0.000e+00 CIT    =8.122e-04 
*        *** Process and parameters extraction related model parameters ***
+TOX    =1.500e-08 NGATE  =0.000e+00 
+NLX    =1.593e-07 
*        *** Substrate current related model parameters ***
+ALPHA0 =0.000e+00 BETA0  =3.000e+01 
*        *** Noise effect related model parameters ***
+AF     =1.400e+00 KF     =2.810e-27 EF     =1.000e+00 
+NOIA   =1.000e+20 NOIB   =5.000e+04 NOIC   =-1.40e-12 
*        *** Common extrinsic model parameters ***
+LINT   =8.917e-08 WINT   =4.938e-08 XJ     =3.000e-07 
+RSH    =8.100e+01 JS     =2.000e-05 
+CJ     =9.300e-04 CJSW   =2.800e-10 
+MJ     =3.100e-01 MJSW   =1.900e-01 
+PB     =6.900e-01 TT     =0.000e+00 
+PBSW   =9.400e-01 
* ----------------------------------------------------------------------
.MODEL MODPM PMOS LEVEL=7 
* ----------------------------------------------------------------------
************************* SIMULATION PARAMETERS ************************
* ----------------------------------------------------------------------
* format    : PSPICE
* model     : MOS BSIM3v3
* process   : CS[ADFI]
* revision  : N/C; 
* extracted : CSA C61417; 1998-10; ese(487)
* doc#      : 9933016 REV_N/C
* ----------------------------------------------------------------------
*                        TYPICAL MEAN CONDITION
* ----------------------------------------------------------------------
*
*        *** Flags ***
+MOBMOD =1.000e+00 CAPMOD =2.000e+00 
+NLEV   =0         
*        *** Threshold voltage related model parameters ***
+K1     =6.327e-01 
+K2     =1.996e-02 K3     =7.833e+00 K3B    =-4.26e+00 
+NCH    =7.776e+16 VTH0   =-8.95e-01 
+VOFF   =-1.13e-01 DVT0   =3.985e-01 DVT1   =2.752e-01 
+DVT2   =-1.97e-02 KETA   =1.673e-02 
+PSCBE1 =5.000e+09 PSCBE2 =1.000e-10 
+DVT0W  =0.000e+00 DVT1W  =0.000e+00 DVT2W  =0.000e+00 
*        *** Mobility related model parameters ***
+UA     =1.000e-12 UB     =1.465e-18 UC     =-6.55e-11 
+U0     =1.199e+02 
*        *** Subthreshold related parameters ***
+DSUB   =5.000e-01 ETA0   =7.085e-02 ETAB   =-1.94e-02 
+NFACTOR=5.406e-01 
*        *** Saturation related parameters ***
+EM     =4.100e+07 PCLM   =4.597e+00 
+PDIBLC1=1.000e-04 PDIBLC2=1.772e-02 DROUT  =5.000e-01 
+A0     =1.201e+00 A1     =0.000e+00 A2     =1.000e+00 
+PVAG   =0.000e+00 VSAT   =2.000e+05 AGS    =1.658e-01 
+B0     =9.747e-08 B1     =0.000e+00 DELTA  =1.000e-02 
+PDIBLCB=-1.00e-03 
*        *** Geometry modulation related parameters ***
+W0     =2.000e-06 DLC    =-8.24e-08 
+DWC    =4.990e-08 DWB    =0.000e+00 DWG    =0.000e+00 
+LL     =0.000e+00 LW     =0.000e+00 LWL    =0.000e+00 
+LLN    =1.000e+00 LWN    =1.000e+00 WL     =0.000e+00 
+WW     =0.000e+00 WWL    =0.000e+00 WLN    =1.000e+00 
+WWN    =1.000e+00 
*        *** Temperature effect parameters ***
+AT     =3.300e+04 UTE    =-1.30e+00 
+KT1    =-6.30e-01 KT2    =2.200e-02 KT1L   =0.000e+00 
+UA1    =0.000e+00 UB1    =0.000e+00 UC1    =0.000e+00 
+PRT    =0.000e+00 
*        *** Overlap capacitance related and dynamic model parameters   ***
+CGDO   =1.900e-10 CGSO   =1.900e-10 CGBO   =1.100e-10 
+CGDL   =0.000e+00 CGSL   =0.000e+00 CKAPPA =6.000e-01 
+CF     =0.000e+00 ELM    =5.000e+00 
+XPART  =1.000e+00 CLC    =1.000e-15 CLE    =6.000e-01 
*        *** Parasitic resistance and capacitance related model parameters ***
+RDSW   =1.617e+03 
+CDSC   =3.660e-04 CDSCB  =2.943e-05 CDSCD  =1.970e-05 
+PRWB   =0.000e+00 PRWG   =0.000e+00 CIT    =1.816e-04 
*        *** Process and parameters extraction related model parameters ***
+TOX    =1.500e-08 NGATE  =0.000e+00 
+NLX    =2.231e-07 
*        *** Substrate current related model parameters ***
+ALPHA0 =0.000e+00 BETA0  =3.000e+01 
*        *** Noise effect related model parameters ***
+AF     =1.290e+00 KF     =1.090e-27 EF     =1.000e+00 
+NOIA   =1.000e+20 NOIB   =5.000e+04 NOIC   =-1.40e-12 
*        *** Common extrinsic model parameters ***
+LINT   =-8.24e-08 WINT   =4.990e-08 XJ     =3.000e-07 
+RSH    =1.560e+02 JS     =2.000e-05 
+CJ     =1.420e-03 CJSW   =3.800e-10 
+MJ     =5.500e-01 MJSW   =3.900e-01 
+PB     =1.020e+00 TT     =0.000e+00 
+PBSW   =9.400e-01 
* ----------------------------------------------------------------------
.MODEL MODP PMOS LEVEL=7 
* ----------------------------------------------------------------------
************************* SIMULATION PARAMETERS ************************
* ----------------------------------------------------------------------
* format    : PSPICE
* model     : MOS BSIM3v3
* process   : CS[ADFI]
* revision  : N/C; 
* extracted : CSA C61417; 1998-10; ese(487)
* doc#      : 9933016 REV_N/C
* ----------------------------------------------------------------------
*                        TYPICAL MEAN CONDITION
* ----------------------------------------------------------------------
*
*        *** Flags ***
+MOBMOD =1.000e+00 CAPMOD =2.000e+00 
+NLEV   =0         
*        *** Threshold voltage related model parameters ***
+K1     =5.675e-01 
+K2     =-4.39e-02 K3     =4.540e+00 K3B    =-8.52e-01 
+NCH    =1.032e+17 VTH0   =-6.17e-01 
+VOFF   =-1.13e-01 DVT0   =1.482e+00 DVT1   =3.884e-01 
+DVT2   =-1.15e-02 KETA   =-2.56e-02 
+PSCBE1 =1.000e+09 PSCBE2 =1.000e-08 
+DVT0W  =0.000e+00 DVT1W  =0.000e+00 DVT2W  =0.000e+00 
*        *** Mobility related model parameters ***
+UA     =2.120e-10 UB     =8.290e-19 UC     =-5.28e-11 
+U0     =1.296e+02 
*        *** Subthreshold related parameters ***
+DSUB   =5.000e-01 ETA0   =2.293e-01 ETAB   =-3.92e-03 
+NFACTOR=8.237e-01 
*        *** Saturation related parameters ***
+EM     =4.100e+07 PCLM   =2.979e+00 
+PDIBLC1=3.310e-02 PDIBLC2=1.000e-09 DROUT  =5.000e-01 
+A0     =1.423e+00 A1     =0.000e+00 A2     =1.000e+00 
+PVAG   =0.000e+00 VSAT   =2.000e+05 AGS    =3.482e-01 
+B0     =2.719e-07 B1     =0.000e+00 DELTA  =1.000e-02 
+PDIBLCB=-1.78e-02 
*        *** Geometry modulation related parameters ***
+W0     =4.894e-08 DLC    =-5.64e-08 
+DWC    =3.845e-08 DWB    =0.000e+00 DWG    =0.000e+00 
+LL     =0.000e+00 LW     =0.000e+00 LWL    =0.000e+00 
+LLN    =1.000e+00 LWN    =1.000e+00 WL     =0.000e+00 
+WW     =0.000e+00 WWL    =0.000e+00 WLN    =1.000e+00 
+WWN    =1.000e+00 
*        *** Temperature effect parameters ***
+AT     =3.300e+04 UTE    =-1.35e+00 
+KT1    =-5.70e-01 KT2    =2.200e-02 KT1L   =0.000e+00 
+UA1    =0.000e+00 UB1    =0.000e+00 UC1    =0.000e+00 
+PRT    =0.000e+00 
*        *** Overlap capacitance related and dynamic model parameters   ***
+CGDO   =2.100e-10 CGSO   =2.100e-10 CGBO   =1.100e-10 
+CGDL   =0.000e+00 CGSL   =0.000e+00 CKAPPA =6.000e-01 
+CF     =0.000e+00 ELM    =5.000e+00 
+XPART  =1.000e+00 CLC    =1.000e-15 CLE    =6.000e-01 
*        *** Parasitic resistance and capacitance related model parameters ***
+RDSW   =1.853e+03 
+CDSC   =6.994e-04 CDSCB  =2.943e-04 CDSCD  =1.970e-04 
+PRWB   =0.000e+00 PRWG   =0.000e+00 CIT    =1.173e-04 
*        *** Process and parameters extraction related model parameters ***
+TOX    =7.700e-09 NGATE  =0.000e+00 
+NLX    =1.770e-07 
*        *** Substrate current related model parameters ***
+ALPHA0 =0.000e+00 BETA0  =3.000e+01 
*        *** Noise effect related model parameters ***
+AF     =1.290e+00 KF     =1.090e-27 EF     =1.000e+00 
+NOIA   =1.000e+20 NOIB   =5.000e+04 NOIC   =-1.40e-12 
*        *** Common extrinsic model parameters ***
+LINT   =-8.14e-08 WINT   =3.845e-08 XJ     =3.000e-07 
+RSH    =1.560e+02 JS     =2.000e-05 
+CJ     =1.420e-03 CJSW   =3.800e-10 
+MJ     =5.500e-01 MJSW   =3.900e-01 
+PB     =1.020e+00 TT     =0.000e+00 
+PBSW   =9.400e-01 
* ----------------------------------------------------------------------
.SUBCKT PD A C PARAMS: AREA=1e-12 PERI=4e-6
* ----------------------------------------------------------------------
************************* SIMULATION PARAMETERS ************************
* ----------------------------------------------------------------------
* format    : PSPICE
* model     : DIODE
* process   : CS[ADFI]
* revision  : N/C; 
* extracted : CSA C61417; 1998-10; ese(487)
* doc#      : 9933016 REV_N/C
* ----------------------------------------------------------------------
*                        TYPICAL MEAN CONDITION
* ----------------------------------------------------------------------
* TERMINALS: A=anode=P-region C=cathode=N-region
* VARIABLES: M (mulitiplier), AREA [m^2], PERI [m].
* NOTE: The role of a protection DIODE is to conduct ESD current to VDD 
* (or from VSS). This forward bias is NOT modelled, only leakage current 
* and capacitance during normal operation. Any inductive load etc that 
* will give forward bias, must be limited by other components to within 
* Operating Conditions, otherwise parasitic bipolar action can occur.
*
D1 A C PDINSUBA {AREA}
D2 A C PDINSUBS {PERI}
.ENDS PD
*
.MODEL PDINSUBA D 
+IS     =2.000e-05 N      =1.000e+00 
+CJO    =1.420e-03 M      =5.500e-01 VJ     =1.020e+00 
+TT     =0.000e+00 FC     =0.500e+00 
+EG     =1.110e+00 XTI    =3.000e+00 
+AF     =1.000e+00 KF     =0.000e+00
.MODEL PDINSUBS D
+IS     =0.000e+00 N      =1.000e+00 
+CJO    =3.800e-10 M      =3.900e-01 VJ     =1.020e+00 
+TT     =0.000e+00 FC     =0.500e+00  
+EG     =1.110e+00 XTI    =3.000e+00 
+AF     =1.000e+00 KF     =0.000e+00
* ----------------------------------------------------------------------
.SUBCKT MODNH D G S B PARAMS: W=1e-6 L=1e-6 AD=0 AS=0 PD=0 PS=0 NRD=0 NRS=0
* VARIABLES: W,L,AD,AS,PD,PS,NRD,NRS = standard MOSFET parameters
*
M1 D1 G S B MODNHINSUB W={W} L={L} AD={AD} AS={AS} PD={PD} PS={PS} NRD={NRD} NRS={NRS}
RD D1 D {2.163e+03*4.000e-06/W} TC=6.450e-03 
.ENDS MODNH
.MODEL MODNHINSUB NMOS LEVEL=7 
* ----------------------------------------------------------------------
************************* SIMULATION PARAMETERS ************************
* ----------------------------------------------------------------------
* format    : PSPICE
* model     : MOS BSIM3v3
* process   : CS[ADFI]
* revision  : N/C.1; 
* extracted : CSA C61599; 1998-10; ese(487)
* doc#      : 9933016 REV_N/C
* ----------------------------------------------------------------------
*                        TYPICAL MEAN CONDITION
* ----------------------------------------------------------------------
*
*        *** Flags ***
+MOBMOD =1.000e+00 CAPMOD =2.000e+00 
+NLEV   =0         
*        *** Threshold voltage related model parameters ***
+K1     =5.923e-01 
+K2     =-0.000e+00 K3     =-2.24e+00 K3B    =6.954e-01 
+NCH    =2.132e+17 VTH0   =4.329e-01 
+VOFF   =-4.94e-02 DVT0   =4.985e+01 DVT1   =1.296e+00 
+DVT2   =1.311e-02 KETA   =-2.45e-03 
+PSCBE1 =1.000e+10 PSCBE2 =1.024e-05 
+DVT0W  =0.000e+00 DVT1W  =0.000e+00 DVT2W  =0.000e+00 
*        *** Mobility related model parameters ***
+UA     =1.000e-30 UB     =1.329e-18 UC     =9.097e-11 
+U0     =4.162e+02 
*        *** Subthreshold related parameters ***
+DSUB   =5.000e-01 ETA0   =3.075e-02 ETAB   =-5.26e-02 
+NFACTOR=1.000e-01 
*        *** Saturation related parameters ***
+EM     =4.100e+07 PCLM   =6.850e-01 
+PDIBLC1=3.090e-02 PDIBLC2=6.375e-04 DROUT  =5.000e-01 
+A0     =2.060e+00 A1     =0.000e+00 A2     =1.000e+00 
+PVAG   =0.000e+00 VSAT   =1.298e+05 AGS    =2.693e-01 
+B0     =6.790e-08 B1     =0.000e+00 DELTA  =1.000e-02 
+PDIBLCB=2.067e-01 
*        *** Geometry modulation related parameters ***
+W0     =1.145e-07 DLC    =6.000e-07 
+DWC    =2.605e-08 DWB    =0.000e+00 DWG    =0.000e+00 
+LL     =0.000e+00 LW     =0.000e+00 LWL    =0.000e+00 
+LLN    =1.000e+00 LWN    =1.000e+00 WL     =0.000e+00 
+WW     =0.000e+00 WWL    =0.000e+00 WLN    =1.000e+00 
+WWN    =1.000e+00 
*        *** Temperature effect parameters ***
+AT     =3.300e+04 UTE    =-1.76e+00 
+KT1    =-3.30e-01 KT2    =2.200e-02 KT1L   =0.000e+00 
+UA1    =0.000e+00 UB1    =0.000e+00 UC1    =0.000e+00 
+PRT    =0.000e+00 
*        *** Overlap capacitance related and dynamic model parameters   ***
+CGDO   =2.100e-10 CGSO   =2.100e-10 CGBO   =1.100e-10 
+CGDL   =0.000e+00 CGSL   =0.000e+00 CKAPPA =6.000e-01 
+CF     =0.000e+00 ELM    =5.000e+00 
+XPART  =1.000e+00 CLC    =1.000e-15 CLE    =6.000e-01 
*        *** Parasitic resistance and capacitance related model parameters ***
+RDSW   =5.693e+02 
+CDSC   =7.944e-03 CDSCB  =0.000e+00 CDSCD  =8.448e-05 
+PRWB   =0.000e+00 PRWG   =0.000e+00 CIT    =1.000e-03 
*        *** Process and parameters extraction related model parameters ***
+TOX    =7.700e-09 NGATE  =0.000e+00 
+NLX    =1.132e-07 
*        *** Substrate current related model parameters ***
+ALPHA0 =0.000e+00 BETA0  =3.000e+01 
*        *** Noise effect related model parameters ***
+AF     =1.400e+00 KF     =2.810e-27 EF     =1.000e+00 
+NOIA   =1.000e+20 NOIB   =5.000e+04 NOIC   =-1.40e-12 
*        *** Common extrinsic model parameters ***
+LINT   =5.750e-07 WINT   =2.605e-08 XJ     =3.000e-07 
+RSH    =8.200e+01 JS     =2.000e-05 
+CJ     =9.300e-04 CJSW   =2.800e-10 
+MJ     =3.100e-01 MJSW   =1.900e-01 
+PB     =6.900e-01 TT     =0.000e+00 
+PBSW   =9.400e-01 
* ----------------------------------------------------------------------
.SUBCKT MODNMH D G S B PARAMS: W=1e-6 L=1e-6 AD=0 AS=0 PD=0 PS=0 NRD=0 NRS=0
* VARIABLES: W,L,AD,AS,PD,PS,NRD,NRS = standard MOSFET parameters
*
M1 D1 G S B MODNMHINSUB W={W} L={L} AD={AD} AS={AS} PD={PD} PS={PS} NRD={NRD} NRS={NRS}
RD D1 D {1.619e+03*4.000e-06/W} TC=6.500e-03 
.ENDS MODNMH
.MODEL MODNMHINSUB NMOS LEVEL=7 
* ----------------------------------------------------------------------
************************* SIMULATION PARAMETERS ************************
* ----------------------------------------------------------------------
* format    : PSPICE
* model     : MOS BSIM3v3
* process   : CS[ADFI]
* revision  : N/C; 
* extracted : CSA C61763; 1999-01; ese(487)
* doc#      : 9933016 REV_N/C
* ----------------------------------------------------------------------
*                        TYPICAL MEAN CONDITION
* ----------------------------------------------------------------------
*
*        *** Flags ***
+MOBMOD =1.000e+00 CAPMOD =2.000e+00 
+NLEV   =0         
*        *** Threshold voltage related model parameters ***
+K1     =8.866e-01 
+K2     =5.041e-02 K3     =-2.44e+00 K3B    =4.077e-01 
+NCH    =1.898e+17 VTH0   =6.057e-01 
+VOFF   =-6.38e-02 DVT0   =5.000e+01 DVT1   =1.683e+00 
+DVT2   =4.126e-02 KETA   =5.769e-03 
+PSCBE1 =4.000e+10 PSCBE2 =1.000e-10 
+DVT0W  =0.000e+00 DVT1W  =0.000e+00 DVT2W  =0.000e+00 
*        *** Mobility related model parameters ***
+UA     =1.000e-12 UB     =2.044e-18 UC     =-7.99e-11 
+U0     =5.764e+02 
*        *** Subthreshold related parameters ***
+DSUB   =5.000e-01 ETA0   =1.616e-03 ETAB   =-1.37e-02 
+NFACTOR=1.180e-01 
*        *** Saturation related parameters ***
+EM     =4.100e+07 PCLM   =5.166e-01 
+PDIBLC1=1.000e-10 PDIBLC2=1.000e-10 DROUT  =5.000e-01 
+A0     =1.273e+00 A1     =0.000e+00 A2     =1.000e+00 
+PVAG   =0.000e+00 VSAT   =9.822e+04 AGS    =9.448e-02 
+B0     =-3.63e-08 B1     =0.000e+00 DELTA  =1.000e-02 
+PDIBLCB=3.872e-01 
*        *** Geometry modulation related parameters ***
+W0     =6.289e-08 DLC    =8.917e-08 
+DWC    =4.938e-08 DWB    =0.000e+00 DWG    =0.000e+00 
+LL     =0.000e+00 LW     =0.000e+00 LWL    =0.000e+00 
+LLN    =1.000e+00 LWN    =1.000e+00 WL     =0.000e+00 
+WW     =0.000e+00 WWL    =0.000e+00 WLN    =1.000e+00 
+WWN    =1.000e+00 
*        *** Temperature effect parameters ***
+AT     =3.300e+04 UTE    =-1.75e+00 
+KT1    =-4.50e-01 KT2    =2.200e-02 KT1L   =0.000e+00 
+UA1    =0.000e+00 UB1    =0.000e+00 UC1    =0.000e+00 
+PRT    =0.000e+00 
*        *** Overlap capacitance related and dynamic model parameters   ***
+CGDO   =1.900e-10 CGSO   =1.900e-10 CGBO   =1.100e-10 
+CGDL   =0.000e+00 CGSL   =0.000e+00 CKAPPA =6.000e-01 
+CF     =0.000e+00 ELM    =5.000e+00 
+XPART  =1.000e+00 CLC    =1.000e-15 CLE    =6.000e-01 
*        *** Parasitic resistance and capacitance related model parameters ***
+RDSW   =1.570e+03 
+CDSC   =1.000e-02 CDSCB  =0.000e+00 CDSCD  =8.448e-05 
+PRWB   =0.000e+00 PRWG   =0.000e+00 CIT    =8.122e-04 
*        *** Process and parameters extraction related model parameters ***
+TOX    =1.500e-08 NGATE  =0.000e+00 
+NLX    =1.593e-07 
*        *** Substrate current related model parameters ***
+ALPHA0 =0.000e+00 BETA0  =3.000e+01 
*        *** Noise effect related model parameters ***
+AF     =1.400e+00 KF     =2.800e-27 EF     =1.000e+00 
+NOIA   =1.000e+20 NOIB   =5.000e+04 NOIC   =-1.40e-12 
*        *** Common extrinsic model parameters ***
+LINT   =5.892e-07 WINT   =4.938e-08 XJ     =3.000e-07 
+RSH    =8.100e+01 JS     =2.000e-05 
+CJ     =9.300e-04 CJSW   =2.800e-10 
+MJ     =3.100e-01 MJSW   =1.900e-01 
+PB     =6.900e-01 TT     =0.000e+00 
+PBSW   =9.400e-01 
* ----------------------------------------------------------------------
